* Extracted by KLayout with GF180MCU LVS runset on : 03/12/2025 14:02

.SUBCKT 8b_mult b6_c5 vss x0_b0_f x1_b0_f x2_b0_f x3_b0_f x4_b0_f x5_b0_f
+ x6_b0_f p15_not x0_b0_f_not x1_b0_f_not x2_b0_f_not x3_b0_f_not x4_b0_f_not
+ x5_b0_f_not x6_b0_f_not p15 vdd
+ a7_not|b0_p7_not|b1_p7_not|b2_p7_not|b4_p7_not|b5_p7_not|b6_p7_not|b7_p7_not
+ a7|b0_p7|b1_p7|b2_p7|b3_p7|b4_p7|b5_p7|b6_p7|b7_p7 b2_p7_not|b3_p7_not
+ b1_c7_not x0_a7_b_not x0_a7_b b2_c7_not b2_r7_b_not b2_r7_b b3_c7_not
+ b3_r7_b_not b3_r7_b b4_c7_not b4_r7_b_not b4_r7_b b5_c7_not b5_r7_b_not
+ b5_r7_b b6_c7_not b6_r7_b_not b6_r7_b p14 p14_not
+ b1_not|b1_q0_not|b1_q1_not|b1_q2_not|b1_q3_not|b1_q4_not|b1_q5_not|b1_q6_not|b1_q7_not
+ b2_not|b2_q0_not|b2_q1_not|b2_q2_not|b2_q3_not|b2_q4_not|b2_q5_not|b2_q7_not
+ b2_q0_not|b2_q1_not|b2_q2_not|b2_q3_not|b2_q4_not|b2_q5_not|b2_q7_not|b3_not|b3_q0_not|b3_q1_not|b3_q2_not|b3_q3_not|b3_q4_not|b3_q5_not|b3_q6_not|b3_q7_not
+ b2_q0_not|b2_q1_not|b2_q3_not|b2_q4_not|b2_q5_not|b2_q7_not|b4_not|b4_q7_not
+ b5_not|b5_q0_not|b5_q1_not|b5_q2_not|b5_q3_not|b5_q4_not|b5_q5_not|b5_q6_not|b5_q7_not
+ b6_not|b6_q0_not|b6_q1_not|b6_q2_not|b6_q3_not|b6_q4_not|b6_q5_not|b6_q6_not|b6_q7_not
+ b7_not|b7_q0_not|b7_q1_not|b7_q2_not|b7_q3_not|b7_q4_not|b7_q5_not|b7_q6_not|b7_q7_not
+ b1_c7 b1|b1_q0|b1_q1|b1_q2|b1_q3|b1_q4|b1_q5|b1_q6|b1_q7
+ b2|b2_q0|b2_q1|b2_q2|b2_q3|b2_q4|b2_q5|b2_q7 b2_c7
+ b2_q0|b2_q1|b2_q2|b2_q3|b2_q4|b2_q5|b2_q7|b3|b3_q0|b3_q1|b3_q2|b3_q3|b3_q4|b3_q5|b3_q6|b3_q7
+ b3_c7 b2_q0|b2_q1|b2_q2|b2_q3|b2_q4|b2_q5|b2_q7|b4|b4_q7 b4_c7
+ b5|b5_q0|b5_q1|b5_q2|b5_q3|b5_q4|b5_q5|b5_q6|b5_q7 b5_c7
+ b6|b6_q0|b6_q1|b6_q2|b6_q3|b6_q4|b6_q5|b6_q6|b6_q7 b6_c7
+ b1_q3|b7|b7_q0|b7_q1|b7_q2|b7_q4|b7_q5|b7_q6|b7_q7 x0_a7_f x0_a7_f_not
+ a6_not|b0_p6_not|b1_p6_not|b3_p6_not|b4_p6_not|b5_p6_not|b6_p6_not|b7_p6_not
+ a6|b0_p6|b1_p6|b3_p6|b4_p6|b5_p6|b6_p6|b7_p6 b1_c6_not b1_c6 b0_c7_not b0_c7
+ b0_r7_b_not b0_r7_b b2_c6_not b2_r6_b_not b2_r6_b b3_c6_not b3_r6_b_not
+ b3_r6_b b4_c6_not b4_r6_b_not b4_r6_b b5_c6_not b5_r6_b_not b5_r6_b b6_c6_not
+ b6_r6_b_not b6_r6_b p13 p13_not
+ b0_not|b0_q0_not|b0_q1_not|b0_q3_not|b0_q4_not|b0_q5_not|b0_q6_not|b0_q7_not|b1_q2_not
+ b0|b0_q0|b0_q1|b0_q2|b0_q3|b0_q4|b0_q5|b0_q6|b0_q7 b2_c6 b3_c6 b4_c6 b5_c6
+ b6_c6
+ a5_not|b0_p5_not|b1_p5_not|b2_p5_not|b3_p5_not|b5_p5_not|b6_p5_not|b7_p5_not
+ a5|b0_p5|b1_p5|b3_p5|b4_p5|b5_p5|b6_p5|b7_p5 b1_c5_not b0_c6_not b0_r6_b_not
+ b0_r6_b b2_c5_not b2_r5_b_not b2_r5_b b3_r5_b_not b3_r5_b b4_r5_b_not b4_r5_b
+ b5_r5_b_not b5_r5_b b6_c5_not b6_r5_b_not b6_r5_b p12_not b1_c5 b0_c6 p12
+ b2_c5 b3_c5 b5_c5
+ a4_not|b0_p4_not|b1_p4_not|b2_p4_not|b3_p4_not|b5_p4_not|b6_p4_not|b7_p4_not
+ a4|b0_p4|b1_p4|b2_p4|b3_p4|b4_p4|b5_p4|b6_p4|b7_p4 b1_c4_not b0_c5_not
+ b0_r5_b_not b0_r5_b b2_c4_not b2_r4_b_not b2_r4_b b3_r4_b_not b3_r4_b
+ b4_r4_b_not b4_r4_b b5_r4_b_not b5_r4_b b6_c4_not b6_r4_b_not b6_r4_b p11
+ p11_not b1_c4 b0_c5 b6_c4 b2_c4
+ a3_not|b0_p3_not|b1_p3_not|b2_p3_not|b3_p3_not|b5_p3_not|b6_p3_not|b7_p3_not
+ a3|b0_p3|b1_p3|b2_p3|b3_p3|b5_p3|b6_p3|b7_p3 b1_c3_not b0_c4_not b0_r4_b_not
+ b0_r4_b b2_c2_not b2_r3_b_not b2_r3_b b3_c2_not b3_r3_b_not b3_r3_b b4_c2_not
+ b4_r3_b_not b4_r3_b b5_c2_not b5_r3_b_not b5_r3_b b6_c2_not|b6_c3_not
+ b6_r3_b_not b6_r3_b b6_c2_not p10 p10_not b1_c3 b0_c4 b2_c2 b3_c2 b4_c2 b5_c2
+ b6_c2 b6_c2|b6_c3
+ a2_not|b0_p2_not|b1_p2_not|b2_p2_not|b3_p2_not|b5_p2_not|b6_p2_not|b7_p2_not
+ a2|b0_p2|b1_p2|b2_p2|b3_p2|b4_p2|b5_p2|b6_p2|b7_p2 b1_c2_not b0_c3_not
+ b2_r2_b_not b2_r2_b b3_r2_b_not b3_r2_b b4_r2_b_not b4_r2_b b5_r2_b_not
+ b5_r2_b b6_r2_b_not b6_r2_b p9 p9_not b1_c2 b0_c3
+ a1_not|b0_p1_not|b1_p1_not|b2_p1_not|b3_p1_not|b4_p1_not|b5_p1_not|b6_p1_not|b7_p1_not
+ b1_c1_not a1|b0_p1|b1_p1|b2_p1|b3_p1|b4_p1|b5_p1|b6_p1|b7_p1 b2_r1_b_not
+ b2_r1_b b2_c1_not b3_r1_b_not b3_r1_b b4_r1_b_not b4_r1_b b5_r1_b_not b5_r1_b
+ b6_r1_b_not b6_r1_b b0_c2_not b6_c1_not p8 p8_not b1_c1 b0_c2 b2_c1 b3_c1
+ b4_c1 b5_c1 b6_c1
+ a0_not|b0_p0_not|b1_p0_not|b2_p0_not|b3_p0_not|b5_p0_not|b6_p0_not|b7_p0_not
+ a0|b0_p0|b1_p0|b2_p0|b3_p0|b4_p0|b5_p0|b6_p0|b7_p0 b1_c0_not b0_c1_not
+ b2_c0_not b2_r0_b_not b2_r0_b b3_r0_b_not b3_r0_b b4_r0_b_not b4_r0_b
+ b5_r0_b_not b5_r0_b b6_c0_not b6_r0_b_not b6_r0_b x0_c0_b x0_c0_b_not p1
+ p1_not p2 p2_not p3 p3_not p4 p4_not p5 p5_not p6 p6_not p7 p7_not b1_c0
+ b0_c1 b2_c0 x0_c0_f x0_c0_f_not b6_c0 b0_c0_not p0_not b0_c0 p0
M$1 x2_b0_f_not \$166 \$17 vdd pfet_03v3 L=0.5U W=1.235U AS=0.6422P AD=0.70395P
+ PS=3.51U PD=3.61U
M$2 \$15 \$80 x2_b0_f_not vdd pfet_03v3 L=0.5U W=1.235U AS=0.60515P AD=0.6669P
+ PS=3.45U PD=3.55U
M$3 x2_b0_f \$166 \$15 vdd pfet_03v3 L=0.5U W=1.235U AS=0.6669P AD=0.60515P
+ PS=3.55U PD=3.45U
M$4 x3_b0_f_not \$173 \$19 vdd pfet_03v3 L=0.5U W=1.235U AS=0.6422P AD=0.70395P
+ PS=3.51U PD=3.61U
M$5 x4_b0_f_not \$180 \$21 vdd pfet_03v3 L=0.5U W=1.235U AS=0.6422P AD=0.70395P
+ PS=3.51U PD=3.61U
M$6 x5_b0_f_not \$187 \$23 vdd pfet_03v3 L=0.5U W=1.235U AS=0.6422P AD=0.70395P
+ PS=3.51U PD=3.61U
M$7 x6_b0_f_not \$194 p15_not vdd pfet_03v3 L=0.5U W=1.235U AS=0.6422P
+ AD=0.70395P PS=3.51U PD=3.61U
M$8 x0_b0_f_not \$152 \$28 vdd pfet_03v3 L=0.5U W=1.235U AS=0.6422P AD=0.70395P
+ PS=3.51U PD=3.61U
M$9 x1_b0_f_not \$159 \$31 vdd pfet_03v3 L=0.5U W=1.235U AS=0.6422P AD=0.70395P
+ PS=3.51U PD=3.61U
M$10 \$34 \$82 x3_b0_f_not vdd pfet_03v3 L=0.5U W=1.235U AS=0.60515P AD=0.6669P
+ PS=3.45U PD=3.55U
M$11 x3_b0_f \$173 \$34 vdd pfet_03v3 L=0.5U W=1.235U AS=0.6669P AD=0.60515P
+ PS=3.55U PD=3.45U
M$12 \$36 \$84 x4_b0_f_not vdd pfet_03v3 L=0.5U W=1.235U AS=0.60515P AD=0.6669P
+ PS=3.45U PD=3.55U
M$13 x4_b0_f \$180 \$36 vdd pfet_03v3 L=0.5U W=1.235U AS=0.6669P AD=0.60515P
+ PS=3.55U PD=3.45U
M$14 \$38 \$86 x5_b0_f_not vdd pfet_03v3 L=0.5U W=1.235U AS=0.60515P AD=0.6669P
+ PS=3.45U PD=3.55U
M$15 x5_b0_f \$187 \$38 vdd pfet_03v3 L=0.5U W=1.235U AS=0.6669P AD=0.60515P
+ PS=3.55U PD=3.45U
M$16 p15 \$88 x6_b0_f_not vdd pfet_03v3 L=0.5U W=1.235U AS=0.60515P AD=0.6669P
+ PS=3.45U PD=3.55U
M$17 x6_b0_f \$194 p15 vdd pfet_03v3 L=0.5U W=1.235U AS=0.6669P AD=0.60515P
+ PS=3.55U PD=3.45U
M$18 \$27 \$76 x0_b0_f_not vdd pfet_03v3 L=0.5U W=1.235U AS=0.60515P AD=0.6669P
+ PS=3.45U PD=3.55U
M$19 x0_b0_f \$152 \$27 vdd pfet_03v3 L=0.5U W=1.235U AS=0.6669P AD=0.60515P
+ PS=3.55U PD=3.45U
M$20 \$28 \$76 x0_b0_f vdd pfet_03v3 L=0.5U W=1.235U AS=0.648375P AD=0.60515P
+ PS=3.52U PD=3.45U
M$21 \$30 \$78 x1_b0_f_not vdd pfet_03v3 L=0.5U W=1.235U AS=0.60515P AD=0.6669P
+ PS=3.45U PD=3.55U
M$22 x1_b0_f \$159 \$30 vdd pfet_03v3 L=0.5U W=1.235U AS=0.6669P AD=0.60515P
+ PS=3.55U PD=3.45U
M$23 \$31 \$78 x1_b0_f vdd pfet_03v3 L=0.5U W=1.235U AS=0.648375P AD=0.60515P
+ PS=3.52U PD=3.45U
M$24 \$30 \$165 \$289 vdd pfet_03v3 L=0.5U W=1.235U AS=0.6422P AD=0.70395P
+ PS=3.51U PD=3.61U
M$25 \$223 \$165 \$145 vdd pfet_03v3 L=0.5U W=1.235U AS=0.6422P AD=0.70395P
+ PS=3.51U PD=3.61U
M$26 \$17 \$80 x2_b0_f vdd pfet_03v3 L=0.5U W=1.235U AS=0.648375P AD=0.60515P
+ PS=3.52U PD=3.45U
M$27 \$290 b3_r7_b_not \$145 vdd pfet_03v3 L=0.5U W=1.235U AS=0.60515P
+ AD=0.6669P PS=3.45U PD=3.55U
M$28 \$145 b3_r7_b \$291 vdd pfet_03v3 L=0.5U W=1.235U AS=0.6422P AD=0.70395P
+ PS=3.51U PD=3.61U
M$29 \$292 \$291 \$289 vdd pfet_03v3 L=0.5U W=1.235U AS=0.60515P AD=0.6669P
+ PS=3.45U PD=3.55U
M$30 \$289 \$290 \$293 vdd pfet_03v3 L=0.5U W=1.235U AS=0.6422P AD=0.70395P
+ PS=3.51U PD=3.61U
M$31 \$19 \$82 x3_b0_f vdd pfet_03v3 L=0.5U W=1.235U AS=0.648375P AD=0.60515P
+ PS=3.52U PD=3.45U
M$32 \$21 \$84 x4_b0_f vdd pfet_03v3 L=0.5U W=1.235U AS=0.648375P AD=0.60515P
+ PS=3.52U PD=3.45U
M$33 \$23 \$86 x5_b0_f vdd pfet_03v3 L=0.5U W=1.235U AS=0.648375P AD=0.60515P
+ PS=3.52U PD=3.45U
M$34 p15_not \$88 x6_b0_f vdd pfet_03v3 L=0.5U W=1.235U AS=0.648375P
+ AD=0.60515P PS=3.52U PD=3.45U
M$35 \$287 \$163 \$30 vdd pfet_03v3 L=0.5U W=1.235U AS=0.60515P AD=0.6669P
+ PS=3.45U PD=3.55U
M$36 \$31 \$165 \$287 vdd pfet_03v3 L=0.5U W=1.235U AS=0.6669P AD=0.60515P
+ PS=3.55U PD=3.45U
M$37 \$288 \$163 \$223 vdd pfet_03v3 L=0.5U W=1.235U AS=0.60515P AD=0.6669P
+ PS=3.45U PD=3.55U
M$38 \$451 \$165 \$288 vdd pfet_03v3 L=0.5U W=1.235U AS=0.6669P AD=0.60515P
+ PS=3.55U PD=3.45U
M$39 \$288 b3_r7_b \$290 vdd pfet_03v3 L=0.5U W=1.235U AS=0.6669P AD=0.60515P
+ PS=3.55U PD=3.45U
M$40 \$287 \$290 \$292 vdd pfet_03v3 L=0.5U W=1.235U AS=0.6669P AD=0.60515P
+ PS=3.55U PD=3.45U
M$41 \$298 b4_r7_b_not \$146 vdd pfet_03v3 L=0.5U W=1.235U AS=0.60515P
+ AD=0.6669P PS=3.45U PD=3.55U
M$42 \$146 b4_r7_b \$299 vdd pfet_03v3 L=0.5U W=1.235U AS=0.6422P AD=0.70395P
+ PS=3.51U PD=3.61U
M$43 \$300 \$299 \$296 vdd pfet_03v3 L=0.5U W=1.235U AS=0.60515P AD=0.6669P
+ PS=3.45U PD=3.55U
M$44 \$296 \$298 \$301 vdd pfet_03v3 L=0.5U W=1.235U AS=0.6422P AD=0.70395P
+ PS=3.51U PD=3.61U
M$45 \$306 b5_r7_b_not \$147 vdd pfet_03v3 L=0.5U W=1.235U AS=0.60515P
+ AD=0.6669P PS=3.45U PD=3.55U
M$46 \$147 b5_r7_b \$307 vdd pfet_03v3 L=0.5U W=1.235U AS=0.6422P AD=0.70395P
+ PS=3.51U PD=3.61U
M$47 \$308 \$307 \$304 vdd pfet_03v3 L=0.5U W=1.235U AS=0.60515P AD=0.6669P
+ PS=3.45U PD=3.55U
M$48 \$304 \$306 \$309 vdd pfet_03v3 L=0.5U W=1.235U AS=0.6422P AD=0.70395P
+ PS=3.51U PD=3.61U
M$49 \$314 b6_r7_b_not \$148 vdd pfet_03v3 L=0.5U W=1.235U AS=0.60515P
+ AD=0.6669P PS=3.45U PD=3.55U
M$50 \$148 b6_r7_b \$315 vdd pfet_03v3 L=0.5U W=1.235U AS=0.6422P AD=0.70395P
+ PS=3.51U PD=3.61U
M$51 \$316 \$315 \$312 vdd pfet_03v3 L=0.5U W=1.235U AS=0.60515P AD=0.6669P
+ PS=3.45U PD=3.55U
M$52 \$312 \$314 \$317 vdd pfet_03v3 L=0.5U W=1.235U AS=0.6422P AD=0.70395P
+ PS=3.51U PD=3.61U
M$53 \$322 \$195 \$149 vdd pfet_03v3 L=0.5U W=1.235U AS=0.60515P AD=0.6669P
+ PS=3.45U PD=3.55U
M$54 \$149 \$196 \$323 vdd pfet_03v3 L=0.5U W=1.235U AS=0.6422P AD=0.70395P
+ PS=3.51U PD=3.61U
M$55 p14 \$323 \$320 vdd pfet_03v3 L=0.5U W=1.235U AS=0.60515P AD=0.6669P
+ PS=3.45U PD=3.55U
M$56 \$320 \$322 p14_not vdd pfet_03v3 L=0.5U W=1.235U AS=0.6422P AD=0.70395P
+ PS=3.51U PD=3.61U
M$57 \$142 x0_a7_b \$275 vdd pfet_03v3 L=0.5U W=1.235U AS=0.6422P AD=0.70395P
+ PS=3.51U PD=3.61U
M$58 \$272 \$274 \$277 vdd pfet_03v3 L=0.5U W=1.235U AS=0.6422P AD=0.70395P
+ PS=3.51U PD=3.61U
M$59 \$143 b2_r7_b \$283 vdd pfet_03v3 L=0.5U W=1.235U AS=0.6422P AD=0.70395P
+ PS=3.51U PD=3.61U
M$60 \$280 \$282 \$285 vdd pfet_03v3 L=0.5U W=1.235U AS=0.6422P AD=0.70395P
+ PS=3.51U PD=3.61U
M$61 \$295 \$170 \$15 vdd pfet_03v3 L=0.5U W=1.235U AS=0.60515P AD=0.6669P
+ PS=3.45U PD=3.55U
M$62 \$15 \$172 \$296 vdd pfet_03v3 L=0.5U W=1.235U AS=0.6422P AD=0.70395P
+ PS=3.51U PD=3.61U
M$63 \$297 \$170 \$224 vdd pfet_03v3 L=0.5U W=1.235U AS=0.60515P AD=0.6669P
+ PS=3.45U PD=3.55U
M$64 \$224 \$172 \$146 vdd pfet_03v3 L=0.5U W=1.235U AS=0.6422P AD=0.70395P
+ PS=3.51U PD=3.61U
M$65 \$297 b4_r7_b \$298 vdd pfet_03v3 L=0.5U W=1.235U AS=0.6669P AD=0.60515P
+ PS=3.55U PD=3.45U
M$66 \$295 \$298 \$300 vdd pfet_03v3 L=0.5U W=1.235U AS=0.6669P AD=0.60515P
+ PS=3.55U PD=3.45U
M$67 \$303 \$177 \$34 vdd pfet_03v3 L=0.5U W=1.235U AS=0.60515P AD=0.6669P
+ PS=3.45U PD=3.55U
M$68 \$34 \$179 \$304 vdd pfet_03v3 L=0.5U W=1.235U AS=0.6422P AD=0.70395P
+ PS=3.51U PD=3.61U
M$69 \$305 \$177 \$225 vdd pfet_03v3 L=0.5U W=1.235U AS=0.60515P AD=0.6669P
+ PS=3.45U PD=3.55U
M$70 \$225 \$179 \$147 vdd pfet_03v3 L=0.5U W=1.235U AS=0.6422P AD=0.70395P
+ PS=3.51U PD=3.61U
M$71 \$305 b5_r7_b \$306 vdd pfet_03v3 L=0.5U W=1.235U AS=0.6669P AD=0.60515P
+ PS=3.55U PD=3.45U
M$72 \$303 \$306 \$308 vdd pfet_03v3 L=0.5U W=1.235U AS=0.6669P AD=0.60515P
+ PS=3.55U PD=3.45U
M$73 \$311 \$184 \$36 vdd pfet_03v3 L=0.5U W=1.235U AS=0.60515P AD=0.6669P
+ PS=3.45U PD=3.55U
M$74 \$36 \$186 \$312 vdd pfet_03v3 L=0.5U W=1.235U AS=0.6422P AD=0.70395P
+ PS=3.51U PD=3.61U
M$75 \$313 \$184 \$226 vdd pfet_03v3 L=0.5U W=1.235U AS=0.60515P AD=0.6669P
+ PS=3.45U PD=3.55U
M$76 \$226 \$186 \$148 vdd pfet_03v3 L=0.5U W=1.235U AS=0.6422P AD=0.70395P
+ PS=3.51U PD=3.61U
M$77 \$313 b6_r7_b \$314 vdd pfet_03v3 L=0.5U W=1.235U AS=0.6669P AD=0.60515P
+ PS=3.55U PD=3.45U
M$78 \$311 \$314 \$316 vdd pfet_03v3 L=0.5U W=1.235U AS=0.6669P AD=0.60515P
+ PS=3.55U PD=3.45U
M$79 \$319 \$191 \$38 vdd pfet_03v3 L=0.5U W=1.235U AS=0.60515P AD=0.6669P
+ PS=3.45U PD=3.55U
M$80 \$38 \$193 \$320 vdd pfet_03v3 L=0.5U W=1.235U AS=0.6422P AD=0.70395P
+ PS=3.51U PD=3.61U
M$81 \$321 \$191 \$227 vdd pfet_03v3 L=0.5U W=1.235U AS=0.60515P AD=0.6669P
+ PS=3.45U PD=3.55U
M$82 \$227 \$193 \$149 vdd pfet_03v3 L=0.5U W=1.235U AS=0.6422P AD=0.70395P
+ PS=3.51U PD=3.61U
M$83 \$321 \$196 \$322 vdd pfet_03v3 L=0.5U W=1.235U AS=0.6669P AD=0.60515P
+ PS=3.55U PD=3.45U
M$84 \$319 \$322 p14 vdd pfet_03v3 L=0.5U W=1.235U AS=0.6669P AD=0.60515P
+ PS=3.55U PD=3.45U
M$85 \$271 x0_a7_f_not \$220 vdd pfet_03v3 L=0.5U W=1.235U AS=0.60515P
+ AD=0.6669P PS=3.45U PD=3.55U
M$86 \$151 x0_a7_f \$271 vdd pfet_03v3 L=0.5U W=1.235U AS=0.6669P AD=0.60515P
+ PS=3.55U PD=3.45U
M$87 \$272 x0_a7_f_not \$151 vdd pfet_03v3 L=0.5U W=1.235U AS=0.648375P
+ AD=0.60515P PS=3.52U PD=3.45U
M$88 \$220 x0_a7_f \$272 vdd pfet_03v3 L=0.5U W=1.235U AS=0.6422P AD=0.70395P
+ PS=3.51U PD=3.61U
M$89 \$273 x0_a7_f_not \$221 vdd pfet_03v3 L=0.5U W=1.235U AS=0.60515P
+ AD=0.6669P PS=3.45U PD=3.55U
M$90 \$608 x0_a7_f \$273 vdd pfet_03v3 L=0.5U W=1.235U AS=0.6669P AD=0.60515P
+ PS=3.55U PD=3.45U
M$91 \$142 x0_a7_f_not \$608 vdd pfet_03v3 L=0.5U W=1.235U AS=0.648375P
+ AD=0.60515P PS=3.52U PD=3.45U
M$92 \$221 x0_a7_f \$142 vdd pfet_03v3 L=0.5U W=1.235U AS=0.6422P AD=0.70395P
+ PS=3.51U PD=3.61U
M$93 \$274 x0_a7_b_not \$142 vdd pfet_03v3 L=0.5U W=1.235U AS=0.60515P
+ AD=0.6669P PS=3.45U PD=3.55U
M$94 \$273 x0_a7_b \$274 vdd pfet_03v3 L=0.5U W=1.235U AS=0.6669P AD=0.60515P
+ PS=3.55U PD=3.45U
M$95 \$275 x0_a7_b_not \$273 vdd pfet_03v3 L=0.5U W=1.235U AS=0.648375P
+ AD=0.60515P PS=3.52U PD=3.45U
M$96 \$276 \$275 \$272 vdd pfet_03v3 L=0.5U W=1.235U AS=0.60515P AD=0.6669P
+ PS=3.45U PD=3.55U
M$97 \$271 \$274 \$276 vdd pfet_03v3 L=0.5U W=1.235U AS=0.6669P AD=0.60515P
+ PS=3.55U PD=3.45U
M$98 \$277 \$275 \$271 vdd pfet_03v3 L=0.5U W=1.235U AS=0.648375P AD=0.60515P
+ PS=3.52U PD=3.45U
M$99 \$279 \$156 \$27 vdd pfet_03v3 L=0.5U W=1.235U AS=0.60515P AD=0.6669P
+ PS=3.45U PD=3.55U
M$100 \$28 \$158 \$279 vdd pfet_03v3 L=0.5U W=1.235U AS=0.6669P AD=0.60515P
+ PS=3.55U PD=3.45U
M$101 \$280 \$156 \$28 vdd pfet_03v3 L=0.5U W=1.235U AS=0.648375P AD=0.60515P
+ PS=3.52U PD=3.45U
M$102 \$27 \$158 \$280 vdd pfet_03v3 L=0.5U W=1.235U AS=0.6422P AD=0.70395P
+ PS=3.51U PD=3.61U
M$103 \$281 \$156 \$222 vdd pfet_03v3 L=0.5U W=1.235U AS=0.60515P AD=0.6669P
+ PS=3.45U PD=3.55U
M$104 \$613 \$158 \$281 vdd pfet_03v3 L=0.5U W=1.235U AS=0.6669P AD=0.60515P
+ PS=3.55U PD=3.45U
M$105 \$143 \$156 \$613 vdd pfet_03v3 L=0.5U W=1.235U AS=0.648375P AD=0.60515P
+ PS=3.52U PD=3.45U
M$106 \$222 \$158 \$143 vdd pfet_03v3 L=0.5U W=1.235U AS=0.6422P AD=0.70395P
+ PS=3.51U PD=3.61U
M$107 \$282 b2_r7_b_not \$143 vdd pfet_03v3 L=0.5U W=1.235U AS=0.60515P
+ AD=0.6669P PS=3.45U PD=3.55U
M$108 \$281 b2_r7_b \$282 vdd pfet_03v3 L=0.5U W=1.235U AS=0.6669P AD=0.60515P
+ PS=3.55U PD=3.45U
M$109 \$283 b2_r7_b_not \$281 vdd pfet_03v3 L=0.5U W=1.235U AS=0.648375P
+ AD=0.60515P PS=3.52U PD=3.45U
M$110 \$284 \$283 \$280 vdd pfet_03v3 L=0.5U W=1.235U AS=0.60515P AD=0.6669P
+ PS=3.45U PD=3.55U
M$111 \$279 \$282 \$284 vdd pfet_03v3 L=0.5U W=1.235U AS=0.6669P AD=0.60515P
+ PS=3.55U PD=3.45U
M$112 \$285 \$283 \$279 vdd pfet_03v3 L=0.5U W=1.235U AS=0.648375P AD=0.60515P
+ PS=3.52U PD=3.45U
M$113 \$289 \$163 \$31 vdd pfet_03v3 L=0.5U W=1.235U AS=0.648375P AD=0.60515P
+ PS=3.52U PD=3.45U
M$114 \$145 \$163 \$451 vdd pfet_03v3 L=0.5U W=1.235U AS=0.648375P AD=0.60515P
+ PS=3.52U PD=3.45U
M$115 \$291 b3_r7_b_not \$288 vdd pfet_03v3 L=0.5U W=1.235U AS=0.648375P
+ AD=0.60515P PS=3.52U PD=3.45U
M$116 \$293 \$291 \$287 vdd pfet_03v3 L=0.5U W=1.235U AS=0.648375P AD=0.60515P
+ PS=3.52U PD=3.45U
M$117 \$17 \$172 \$295 vdd pfet_03v3 L=0.5U W=1.235U AS=0.6669P AD=0.60515P
+ PS=3.55U PD=3.45U
M$118 \$296 \$170 \$17 vdd pfet_03v3 L=0.5U W=1.235U AS=0.648375P AD=0.60515P
+ PS=3.52U PD=3.45U
M$119 \$622 \$172 \$297 vdd pfet_03v3 L=0.5U W=1.235U AS=0.6669P AD=0.60515P
+ PS=3.55U PD=3.45U
M$120 \$146 \$170 \$622 vdd pfet_03v3 L=0.5U W=1.235U AS=0.648375P AD=0.60515P
+ PS=3.52U PD=3.45U
M$121 \$299 b4_r7_b_not \$297 vdd pfet_03v3 L=0.5U W=1.235U AS=0.648375P
+ AD=0.60515P PS=3.52U PD=3.45U
M$122 \$301 \$299 \$295 vdd pfet_03v3 L=0.5U W=1.235U AS=0.648375P AD=0.60515P
+ PS=3.52U PD=3.45U
M$123 \$19 \$179 \$303 vdd pfet_03v3 L=0.5U W=1.235U AS=0.6669P AD=0.60515P
+ PS=3.55U PD=3.45U
M$124 \$304 \$177 \$19 vdd pfet_03v3 L=0.5U W=1.235U AS=0.648375P AD=0.60515P
+ PS=3.52U PD=3.45U
M$125 \$627 \$179 \$305 vdd pfet_03v3 L=0.5U W=1.235U AS=0.6669P AD=0.60515P
+ PS=3.55U PD=3.45U
M$126 \$147 \$177 \$627 vdd pfet_03v3 L=0.5U W=1.235U AS=0.648375P AD=0.60515P
+ PS=3.52U PD=3.45U
M$127 \$307 b5_r7_b_not \$305 vdd pfet_03v3 L=0.5U W=1.235U AS=0.648375P
+ AD=0.60515P PS=3.52U PD=3.45U
M$128 \$309 \$307 \$303 vdd pfet_03v3 L=0.5U W=1.235U AS=0.648375P AD=0.60515P
+ PS=3.52U PD=3.45U
M$129 \$21 \$186 \$311 vdd pfet_03v3 L=0.5U W=1.235U AS=0.6669P AD=0.60515P
+ PS=3.55U PD=3.45U
M$130 \$312 \$184 \$21 vdd pfet_03v3 L=0.5U W=1.235U AS=0.648375P AD=0.60515P
+ PS=3.52U PD=3.45U
M$131 \$632 \$186 \$313 vdd pfet_03v3 L=0.5U W=1.235U AS=0.6669P AD=0.60515P
+ PS=3.55U PD=3.45U
M$132 \$148 \$184 \$632 vdd pfet_03v3 L=0.5U W=1.235U AS=0.648375P AD=0.60515P
+ PS=3.52U PD=3.45U
M$133 \$315 b6_r7_b_not \$313 vdd pfet_03v3 L=0.5U W=1.235U AS=0.648375P
+ AD=0.60515P PS=3.52U PD=3.45U
M$134 \$317 \$315 \$311 vdd pfet_03v3 L=0.5U W=1.235U AS=0.648375P AD=0.60515P
+ PS=3.52U PD=3.45U
M$135 \$23 \$193 \$319 vdd pfet_03v3 L=0.5U W=1.235U AS=0.6669P AD=0.60515P
+ PS=3.55U PD=3.45U
M$136 \$320 \$191 \$23 vdd pfet_03v3 L=0.5U W=1.235U AS=0.648375P AD=0.60515P
+ PS=3.52U PD=3.45U
M$137 \$637 \$193 \$321 vdd pfet_03v3 L=0.5U W=1.235U AS=0.6669P AD=0.60515P
+ PS=3.55U PD=3.45U
M$138 \$149 \$191 \$637 vdd pfet_03v3 L=0.5U W=1.235U AS=0.648375P AD=0.60515P
+ PS=3.52U PD=3.45U
M$139 \$323 \$195 \$321 vdd pfet_03v3 L=0.5U W=1.235U AS=0.648375P AD=0.60515P
+ PS=3.52U PD=3.45U
M$140 p14_not \$323 \$319 vdd pfet_03v3 L=0.5U W=1.235U AS=0.648375P
+ AD=0.60515P PS=3.52U PD=3.45U
M$141 \$220 b1|b1_q0|b1_q1|b1_q2|b1_q3|b1_q4|b1_q5|b1_q6|b1_q7 b1_c7_not vdd
+ pfet_03v3 L=0.28U W=0.42U AS=0.273P AD=0.273P PS=2.14U PD=2.14U
M$142 \$683
+ b1_not|b1_q0_not|b1_q1_not|b1_q2_not|b1_q3_not|b1_q4_not|b1_q5_not|b1_q6_not|b1_q7_not
+ \$220 vdd pfet_03v3 L=0.28U W=0.42U AS=0.273P AD=0.273P PS=2.14U PD=2.14U
M$143 b1_c7
+ a7_not|b0_p7_not|b1_p7_not|b2_p7_not|b4_p7_not|b5_p7_not|b6_p7_not|b7_p7_not
+ \$683 vdd pfet_03v3 L=0.28U W=0.42U AS=0.273P AD=0.273P PS=2.14U PD=2.14U
M$144 \$684
+ a7_not|b0_p7_not|b1_p7_not|b2_p7_not|b4_p7_not|b5_p7_not|b6_p7_not|b7_p7_not
+ b1_c7_not vdd pfet_03v3 L=0.28U W=0.42U AS=0.273P AD=0.273P PS=2.14U PD=2.14U
M$145 \$151
+ b1_not|b1_q0_not|b1_q1_not|b1_q2_not|b1_q3_not|b1_q4_not|b1_q5_not|b1_q6_not|b1_q7_not
+ \$684 vdd pfet_03v3 L=0.28U W=0.42U AS=0.273P AD=0.273P PS=2.14U PD=2.14U
M$146 b1_c7 b1|b1_q0|b1_q1|b1_q2|b1_q3|b1_q4|b1_q5|b1_q6|b1_q7 \$151 vdd
+ pfet_03v3 L=0.28U W=0.42U AS=0.273P AD=0.273P PS=2.14U PD=2.14U
M$147 \$76 \$271 x0_a7_f_not vdd pfet_03v3 L=0.28U W=0.42U AS=0.273P AD=0.273P
+ PS=2.14U PD=2.14U
M$148 \$685 \$272 \$76 vdd pfet_03v3 L=0.28U W=0.42U AS=0.273P AD=0.273P
+ PS=2.14U PD=2.14U
M$149 x0_a7_f \$142 \$685 vdd pfet_03v3 L=0.28U W=0.42U AS=0.273P AD=0.273P
+ PS=2.14U PD=2.14U
M$150 \$686 \$142 x0_a7_f_not vdd pfet_03v3 L=0.28U W=0.42U AS=0.273P AD=0.273P
+ PS=2.14U PD=2.14U
M$151 \$152 \$272 \$686 vdd pfet_03v3 L=0.28U W=0.42U AS=0.273P AD=0.273P
+ PS=2.14U PD=2.14U
M$152 x0_a7_f \$271 \$152 vdd pfet_03v3 L=0.28U W=0.42U AS=0.273P AD=0.273P
+ PS=2.14U PD=2.14U
M$153 x0_a7_b_not \$271 \$76 vdd pfet_03v3 L=0.28U W=0.42U AS=0.273P AD=0.273P
+ PS=2.14U PD=2.14U
M$154 \$687 \$272 x0_a7_b_not vdd pfet_03v3 L=0.28U W=0.42U AS=0.273P AD=0.273P
+ PS=2.14U PD=2.14U
M$155 \$152 \$142 \$687 vdd pfet_03v3 L=0.28U W=0.42U AS=0.273P AD=0.273P
+ PS=2.14U PD=2.14U
M$156 \$688 \$142 \$76 vdd pfet_03v3 L=0.28U W=0.42U AS=0.273P AD=0.273P
+ PS=2.14U PD=2.14U
M$157 x0_a7_b \$272 \$688 vdd pfet_03v3 L=0.28U W=0.42U AS=0.273P AD=0.273P
+ PS=2.14U PD=2.14U
M$158 \$152 \$271 x0_a7_b vdd pfet_03v3 L=0.28U W=0.42U AS=0.273P AD=0.273P
+ PS=2.14U PD=2.14U
M$159 \$156 b2|b2_q0|b2_q1|b2_q2|b2_q3|b2_q4|b2_q5|b2_q7 b2_c7_not vdd
+ pfet_03v3 L=0.28U W=0.42U AS=0.273P AD=0.273P PS=2.14U PD=2.14U
M$160 \$689
+ b2_not|b2_q0_not|b2_q1_not|b2_q2_not|b2_q3_not|b2_q4_not|b2_q5_not|b2_q7_not
+ \$156 vdd pfet_03v3 L=0.28U W=0.42U AS=0.273P AD=0.273P PS=2.14U PD=2.14U
M$161 b2_c7
+ a7_not|b0_p7_not|b1_p7_not|b2_p7_not|b4_p7_not|b5_p7_not|b6_p7_not|b7_p7_not
+ \$689 vdd pfet_03v3 L=0.28U W=0.42U AS=0.273P AD=0.273P PS=2.14U PD=2.14U
M$162 \$690
+ a7_not|b0_p7_not|b1_p7_not|b2_p7_not|b4_p7_not|b5_p7_not|b6_p7_not|b7_p7_not
+ b2_c7_not vdd pfet_03v3 L=0.28U W=0.42U AS=0.273P AD=0.273P PS=2.14U PD=2.14U
M$163 \$158
+ b2_not|b2_q0_not|b2_q1_not|b2_q2_not|b2_q3_not|b2_q4_not|b2_q5_not|b2_q7_not
+ \$690 vdd pfet_03v3 L=0.28U W=0.42U AS=0.273P AD=0.273P PS=2.14U PD=2.14U
M$164 b2_c7 b2|b2_q0|b2_q1|b2_q2|b2_q3|b2_q4|b2_q5|b2_q7 \$158 vdd pfet_03v3
+ L=0.28U W=0.42U AS=0.273P AD=0.273P PS=2.14U PD=2.14U
M$165 \$78 \$279 \$156 vdd pfet_03v3 L=0.28U W=0.42U AS=0.273P AD=0.273P
+ PS=2.14U PD=2.14U
M$166 \$691 \$280 \$78 vdd pfet_03v3 L=0.28U W=0.42U AS=0.273P AD=0.273P
+ PS=2.14U PD=2.14U
M$167 \$158 \$143 \$691 vdd pfet_03v3 L=0.28U W=0.42U AS=0.273P AD=0.273P
+ PS=2.14U PD=2.14U
M$168 \$692 \$143 \$156 vdd pfet_03v3 L=0.28U W=0.42U AS=0.273P AD=0.273P
+ PS=2.14U PD=2.14U
M$169 \$159 \$280 \$692 vdd pfet_03v3 L=0.28U W=0.42U AS=0.273P AD=0.273P
+ PS=2.14U PD=2.14U
M$170 \$158 \$279 \$159 vdd pfet_03v3 L=0.28U W=0.42U AS=0.273P AD=0.273P
+ PS=2.14U PD=2.14U
M$171 b2_r7_b_not \$279 \$78 vdd pfet_03v3 L=0.28U W=0.42U AS=0.273P AD=0.273P
+ PS=2.14U PD=2.14U
M$172 \$693 \$280 b2_r7_b_not vdd pfet_03v3 L=0.28U W=0.42U AS=0.273P AD=0.273P
+ PS=2.14U PD=2.14U
M$173 \$159 \$143 \$693 vdd pfet_03v3 L=0.28U W=0.42U AS=0.273P AD=0.273P
+ PS=2.14U PD=2.14U
M$174 \$694 \$143 \$78 vdd pfet_03v3 L=0.28U W=0.42U AS=0.273P AD=0.273P
+ PS=2.14U PD=2.14U
M$175 b2_r7_b \$280 \$694 vdd pfet_03v3 L=0.28U W=0.42U AS=0.273P AD=0.273P
+ PS=2.14U PD=2.14U
M$176 \$159 \$279 b2_r7_b vdd pfet_03v3 L=0.28U W=0.42U AS=0.273P AD=0.273P
+ PS=2.14U PD=2.14U
M$177 \$163
+ b2_q0|b2_q1|b2_q2|b2_q3|b2_q4|b2_q5|b2_q7|b3|b3_q0|b3_q1|b3_q2|b3_q3|b3_q4|b3_q5|b3_q6|b3_q7
+ b3_c7_not vdd pfet_03v3 L=0.28U W=0.42U AS=0.273P AD=0.273P PS=2.14U PD=2.14U
M$178 \$695
+ b2_q0_not|b2_q1_not|b2_q2_not|b2_q3_not|b2_q4_not|b2_q5_not|b2_q7_not|b3_not|b3_q0_not|b3_q1_not|b3_q2_not|b3_q3_not|b3_q4_not|b3_q5_not|b3_q6_not|b3_q7_not
+ \$163 vdd pfet_03v3 L=0.28U W=0.42U AS=0.273P AD=0.273P PS=2.14U PD=2.14U
M$179 b3_c7 b2_p7_not|b3_p7_not \$695 vdd pfet_03v3 L=0.28U W=0.42U AS=0.273P
+ AD=0.273P PS=2.14U PD=2.14U
M$180 \$696 b2_p7_not|b3_p7_not b3_c7_not vdd pfet_03v3 L=0.28U W=0.42U
+ AS=0.273P AD=0.273P PS=2.14U PD=2.14U
M$181 \$165
+ b2_q0_not|b2_q1_not|b2_q2_not|b2_q3_not|b2_q4_not|b2_q5_not|b2_q7_not|b3_not|b3_q0_not|b3_q1_not|b3_q2_not|b3_q3_not|b3_q4_not|b3_q5_not|b3_q6_not|b3_q7_not
+ \$696 vdd pfet_03v3 L=0.28U W=0.42U AS=0.273P AD=0.273P PS=2.14U PD=2.14U
M$182 b3_c7
+ b2_q0|b2_q1|b2_q2|b2_q3|b2_q4|b2_q5|b2_q7|b3|b3_q0|b3_q1|b3_q2|b3_q3|b3_q4|b3_q5|b3_q6|b3_q7
+ \$165 vdd pfet_03v3 L=0.28U W=0.42U AS=0.273P AD=0.273P PS=2.14U PD=2.14U
M$183 \$80 \$287 \$163 vdd pfet_03v3 L=0.28U W=0.42U AS=0.273P AD=0.273P
+ PS=2.14U PD=2.14U
M$184 \$697 \$289 \$80 vdd pfet_03v3 L=0.28U W=0.42U AS=0.273P AD=0.273P
+ PS=2.14U PD=2.14U
M$185 \$165 \$145 \$697 vdd pfet_03v3 L=0.28U W=0.42U AS=0.273P AD=0.273P
+ PS=2.14U PD=2.14U
M$186 \$698 \$145 \$163 vdd pfet_03v3 L=0.28U W=0.42U AS=0.273P AD=0.273P
+ PS=2.14U PD=2.14U
M$187 \$166 \$289 \$698 vdd pfet_03v3 L=0.28U W=0.42U AS=0.273P AD=0.273P
+ PS=2.14U PD=2.14U
M$188 \$165 \$287 \$166 vdd pfet_03v3 L=0.28U W=0.42U AS=0.273P AD=0.273P
+ PS=2.14U PD=2.14U
M$189 b3_r7_b_not \$287 \$80 vdd pfet_03v3 L=0.28U W=0.42U AS=0.273P AD=0.273P
+ PS=2.14U PD=2.14U
M$190 \$699 \$289 b3_r7_b_not vdd pfet_03v3 L=0.28U W=0.42U AS=0.273P AD=0.273P
+ PS=2.14U PD=2.14U
M$191 \$166 \$145 \$699 vdd pfet_03v3 L=0.28U W=0.42U AS=0.273P AD=0.273P
+ PS=2.14U PD=2.14U
M$192 \$700 \$145 \$80 vdd pfet_03v3 L=0.28U W=0.42U AS=0.273P AD=0.273P
+ PS=2.14U PD=2.14U
M$193 b3_r7_b \$289 \$700 vdd pfet_03v3 L=0.28U W=0.42U AS=0.273P AD=0.273P
+ PS=2.14U PD=2.14U
M$194 \$166 \$287 b3_r7_b vdd pfet_03v3 L=0.28U W=0.42U AS=0.273P AD=0.273P
+ PS=2.14U PD=2.14U
M$195 \$82 \$295 \$170 vdd pfet_03v3 L=0.28U W=0.42U AS=0.273P AD=0.273P
+ PS=2.14U PD=2.14U
M$196 \$701 \$296 \$82 vdd pfet_03v3 L=0.28U W=0.42U AS=0.273P AD=0.273P
+ PS=2.14U PD=2.14U
M$197 \$172 \$146 \$701 vdd pfet_03v3 L=0.28U W=0.42U AS=0.273P AD=0.273P
+ PS=2.14U PD=2.14U
M$198 \$702 \$146 \$170 vdd pfet_03v3 L=0.28U W=0.42U AS=0.273P AD=0.273P
+ PS=2.14U PD=2.14U
M$199 \$173 \$296 \$702 vdd pfet_03v3 L=0.28U W=0.42U AS=0.273P AD=0.273P
+ PS=2.14U PD=2.14U
M$200 \$172 \$295 \$173 vdd pfet_03v3 L=0.28U W=0.42U AS=0.273P AD=0.273P
+ PS=2.14U PD=2.14U
M$201 b4_r7_b_not \$295 \$82 vdd pfet_03v3 L=0.28U W=0.42U AS=0.273P AD=0.273P
+ PS=2.14U PD=2.14U
M$202 \$703 \$296 b4_r7_b_not vdd pfet_03v3 L=0.28U W=0.42U AS=0.273P AD=0.273P
+ PS=2.14U PD=2.14U
M$203 \$173 \$146 \$703 vdd pfet_03v3 L=0.28U W=0.42U AS=0.273P AD=0.273P
+ PS=2.14U PD=2.14U
M$204 \$704 \$146 \$82 vdd pfet_03v3 L=0.28U W=0.42U AS=0.273P AD=0.273P
+ PS=2.14U PD=2.14U
M$205 b4_r7_b \$296 \$704 vdd pfet_03v3 L=0.28U W=0.42U AS=0.273P AD=0.273P
+ PS=2.14U PD=2.14U
M$206 \$173 \$295 b4_r7_b vdd pfet_03v3 L=0.28U W=0.42U AS=0.273P AD=0.273P
+ PS=2.14U PD=2.14U
M$207 \$84 \$303 \$177 vdd pfet_03v3 L=0.28U W=0.42U AS=0.273P AD=0.273P
+ PS=2.14U PD=2.14U
M$208 \$705 \$304 \$84 vdd pfet_03v3 L=0.28U W=0.42U AS=0.273P AD=0.273P
+ PS=2.14U PD=2.14U
M$209 \$179 \$147 \$705 vdd pfet_03v3 L=0.28U W=0.42U AS=0.273P AD=0.273P
+ PS=2.14U PD=2.14U
M$210 \$706 \$147 \$177 vdd pfet_03v3 L=0.28U W=0.42U AS=0.273P AD=0.273P
+ PS=2.14U PD=2.14U
M$211 \$180 \$304 \$706 vdd pfet_03v3 L=0.28U W=0.42U AS=0.273P AD=0.273P
+ PS=2.14U PD=2.14U
M$212 \$179 \$303 \$180 vdd pfet_03v3 L=0.28U W=0.42U AS=0.273P AD=0.273P
+ PS=2.14U PD=2.14U
M$213 b5_r7_b_not \$303 \$84 vdd pfet_03v3 L=0.28U W=0.42U AS=0.273P AD=0.273P
+ PS=2.14U PD=2.14U
M$214 \$707 \$304 b5_r7_b_not vdd pfet_03v3 L=0.28U W=0.42U AS=0.273P AD=0.273P
+ PS=2.14U PD=2.14U
M$215 \$180 \$147 \$707 vdd pfet_03v3 L=0.28U W=0.42U AS=0.273P AD=0.273P
+ PS=2.14U PD=2.14U
M$216 \$708 \$147 \$84 vdd pfet_03v3 L=0.28U W=0.42U AS=0.273P AD=0.273P
+ PS=2.14U PD=2.14U
M$217 b5_r7_b \$304 \$708 vdd pfet_03v3 L=0.28U W=0.42U AS=0.273P AD=0.273P
+ PS=2.14U PD=2.14U
M$218 \$180 \$303 b5_r7_b vdd pfet_03v3 L=0.28U W=0.42U AS=0.273P AD=0.273P
+ PS=2.14U PD=2.14U
M$219 \$184 b6|b6_q0|b6_q1|b6_q2|b6_q3|b6_q4|b6_q5|b6_q6|b6_q7 b6_c7_not vdd
+ pfet_03v3 L=0.28U W=0.42U AS=0.273P AD=0.273P PS=2.14U PD=2.14U
M$220 \$709
+ b6_not|b6_q0_not|b6_q1_not|b6_q2_not|b6_q3_not|b6_q4_not|b6_q5_not|b6_q6_not|b6_q7_not
+ \$184 vdd pfet_03v3 L=0.28U W=0.42U AS=0.273P AD=0.273P PS=2.14U PD=2.14U
M$221 b6_c7
+ a7_not|b0_p7_not|b1_p7_not|b2_p7_not|b4_p7_not|b5_p7_not|b6_p7_not|b7_p7_not
+ \$709 vdd pfet_03v3 L=0.28U W=0.42U AS=0.273P AD=0.273P PS=2.14U PD=2.14U
M$222 \$710
+ a7_not|b0_p7_not|b1_p7_not|b2_p7_not|b4_p7_not|b5_p7_not|b6_p7_not|b7_p7_not
+ b6_c7_not vdd pfet_03v3 L=0.28U W=0.42U AS=0.273P AD=0.273P PS=2.14U PD=2.14U
M$223 \$186
+ b6_not|b6_q0_not|b6_q1_not|b6_q2_not|b6_q3_not|b6_q4_not|b6_q5_not|b6_q6_not|b6_q7_not
+ \$710 vdd pfet_03v3 L=0.28U W=0.42U AS=0.273P AD=0.273P PS=2.14U PD=2.14U
M$224 b6_c7 b6|b6_q0|b6_q1|b6_q2|b6_q3|b6_q4|b6_q5|b6_q6|b6_q7 \$186 vdd
+ pfet_03v3 L=0.28U W=0.42U AS=0.273P AD=0.273P PS=2.14U PD=2.14U
M$225 \$86 \$311 \$184 vdd pfet_03v3 L=0.28U W=0.42U AS=0.273P AD=0.273P
+ PS=2.14U PD=2.14U
M$226 \$711 \$312 \$86 vdd pfet_03v3 L=0.28U W=0.42U AS=0.273P AD=0.273P
+ PS=2.14U PD=2.14U
M$227 \$186 \$148 \$711 vdd pfet_03v3 L=0.28U W=0.42U AS=0.273P AD=0.273P
+ PS=2.14U PD=2.14U
M$228 \$712 \$148 \$184 vdd pfet_03v3 L=0.28U W=0.42U AS=0.273P AD=0.273P
+ PS=2.14U PD=2.14U
M$229 \$187 \$312 \$712 vdd pfet_03v3 L=0.28U W=0.42U AS=0.273P AD=0.273P
+ PS=2.14U PD=2.14U
M$230 \$186 \$311 \$187 vdd pfet_03v3 L=0.28U W=0.42U AS=0.273P AD=0.273P
+ PS=2.14U PD=2.14U
M$231 b6_r7_b_not \$311 \$86 vdd pfet_03v3 L=0.28U W=0.42U AS=0.273P AD=0.273P
+ PS=2.14U PD=2.14U
M$232 \$713 \$312 b6_r7_b_not vdd pfet_03v3 L=0.28U W=0.42U AS=0.273P AD=0.273P
+ PS=2.14U PD=2.14U
M$233 \$187 \$148 \$713 vdd pfet_03v3 L=0.28U W=0.42U AS=0.273P AD=0.273P
+ PS=2.14U PD=2.14U
M$234 \$714 \$148 \$86 vdd pfet_03v3 L=0.28U W=0.42U AS=0.273P AD=0.273P
+ PS=2.14U PD=2.14U
M$235 b6_r7_b \$312 \$714 vdd pfet_03v3 L=0.28U W=0.42U AS=0.273P AD=0.273P
+ PS=2.14U PD=2.14U
M$236 \$187 \$311 b6_r7_b vdd pfet_03v3 L=0.28U W=0.42U AS=0.273P AD=0.273P
+ PS=2.14U PD=2.14U
M$237 \$191 b1_q3|b7|b7_q0|b7_q1|b7_q2|b7_q4|b7_q5|b7_q6|b7_q7 b6_c7_not vdd
+ pfet_03v3 L=0.28U W=0.42U AS=0.273P AD=0.273P PS=2.14U PD=2.14U
M$238 \$715
+ b7_not|b7_q0_not|b7_q1_not|b7_q2_not|b7_q3_not|b7_q4_not|b7_q5_not|b7_q6_not|b7_q7_not
+ \$191 vdd pfet_03v3 L=0.28U W=0.42U AS=0.273P AD=0.273P PS=2.14U PD=2.14U
M$239 b6_c7
+ a7_not|b0_p7_not|b1_p7_not|b2_p7_not|b4_p7_not|b5_p7_not|b6_p7_not|b7_p7_not
+ \$715 vdd pfet_03v3 L=0.28U W=0.42U AS=0.273P AD=0.273P PS=2.14U PD=2.14U
M$240 \$716
+ a7_not|b0_p7_not|b1_p7_not|b2_p7_not|b4_p7_not|b5_p7_not|b6_p7_not|b7_p7_not
+ b6_c7_not vdd pfet_03v3 L=0.28U W=0.42U AS=0.273P AD=0.273P PS=2.14U PD=2.14U
M$241 \$193
+ b7_not|b7_q0_not|b7_q1_not|b7_q2_not|b7_q3_not|b7_q4_not|b7_q5_not|b7_q6_not|b7_q7_not
+ \$716 vdd pfet_03v3 L=0.28U W=0.42U AS=0.273P AD=0.273P PS=2.14U PD=2.14U
M$242 b6_c7 b1_q3|b7|b7_q0|b7_q1|b7_q2|b7_q4|b7_q5|b7_q6|b7_q7 \$193 vdd
+ pfet_03v3 L=0.28U W=0.42U AS=0.273P AD=0.273P PS=2.14U PD=2.14U
M$243 \$88 \$319 \$191 vdd pfet_03v3 L=0.28U W=0.42U AS=0.273P AD=0.273P